6
water dimer - geometry from S22 database; downloaded from http://www.begdb.org/index.php?action=oneDataset&id=4&state=show&order=ASC&by=name_m&method=
O  -1.551007  -0.114520   0.000000
H  -1.934259   0.762503   0.000000
H  -0.599677   0.040712   0.000000
O   1.350625   0.111469   0.000000
H   1.680398  -0.373741  -0.758561
H   1.680398  -0.373741   0.758561
